16
XYZ file generated by Avogadro.  AP1.xyz L01_CH  index=1;filename: AP1.xyz    AP1_chiral.xyz L01_CH  index=1;filename: AP1_chiral.xyz  (Symmetric)
N         -1.31002       -0.33894       -0.62598
C         -1.19247        0.37797        0.20625
C          0.30417        0.45051        0.56567
C          0.94124       -0.53541       -0.43080
C         -0.17312       -1.02486       -1.19066
N          0.68269        0.97247        1.22589
H         -1.17539       -0.09090       -0.32063
H         -1.56165        0.18919       -0.07559
H         -1.78816        1.00174        0.80099
H          0.55446        0.73201        0.93029
H          1.25511       -0.81723       -0.69121
H          1.82117       -0.58762       -0.32672
H          0.14427       -1.40218       -1.55837
H         -0.48806       -1.49771       -1.78358
H          1.68370        0.94330        1.37845
H          0.30206        1.62766        1.89600
